LAMMPS (29 Sep 2021 - Update 1)
KOKKOS mode is enabled (../kokkos.cpp:97)
  will use up to 2 GPU(s) per node
package kokkos
# ------------------------ INITIALIZATION ----------------------------
units 		metal
dimension	3
boundary	p	p	p
atom_style	atomic
variable latparam equal 2.9

# ----------------------- ATOM DEFINITION ----------------------------
lattice		bcc 2.9
Lattice spacing in x,y,z = 2.9000000 2.9000000 2.9000000
region		whole block 0 10 0 10 0 10
create_box	1 whole
Created orthogonal box = (0.0000000 0.0000000 0.0000000) to (29.000000 29.000000 29.000000)
lattice 	bcc 2.9 orient x 1 0 0 orient y 0 1 0 orient z 0 0 1
Lattice spacing in x,y,z = 2.9000000 2.9000000 2.9000000
create_atoms	1 region whole
Created 2000 atoms

timestep 0.001
pair_style  eam/alloy
pair_coeff  * * ./FeCuNi.eam.alloy Fe
#pair_coeff  * * ./new_potential/FeCuNi.eam.alloy Fe Fe Fe Fe Cu
#pair_style  aenet
#pair_coeff  * * v03 Fe 10sw-10sw.nn Fe Fe Fe Fe Fe
#pair_coeff  * * ./new_potential/FeCuNi.eam.alloy Fe Fe Fe Fe Cu
mass        * 55.845
#mass        5 58.454 correct value!!!
compute csym all centro/atom bcc
compute peratom all pe/atom
# ------------------------- SETTINGS ---------------------------------

######################################
# EQUILIBRATION
reset_timestep	0
timestep 0.001
velocity all create 0.1 12345 mom yes rot no
fix 1 all npt temp 0.1 0.1 1 iso 0 0 1 drag 1
# Set thermo output
thermo 1000
thermo_style custom step lx ly lz press pxx pyy pzz pe temp
write_data aftermm.lat
System init for write_data ...
  update every 1 steps, delay 10 steps, check yes
# Run for at least 10 picosecond (assuming 1 fs timestep)
run 20000
Step Lx Ly Lz Press Pxx Pyy Pzz PotEng Temp
0           29           29           29   -79218.167   -79218.184   -79218.171   -79218.147   -8216.6733          0.1
Averages over the last 11 of 21 rows, steps 10000 to 20000:
Lx Ly Lz Press Pxx Pyy Pzz PotEng Temp
29.849 29.849 29.849 -173043 -173043 -173043 -173043 -8033.26 0.0885295
Loop time of 2100.17 on 64 procs for 20000 steps with 2000 atoms

unfix1
ERROR: Unknown command: unfix1 (../input.cpp:274)
Last command: unfix1
